/*--------------------------------*- C++ -*----------------------------------*\
| =========                 |                                                 |
| \\      /  F ield         | OpenFOAM: The Open Source CFD Toolbox           |
|  \\    /   O peration     | Version:  v2412                                 |
|   \\  /    A nd           | Website:  www.openfoam.com                      |
|    \\/     M anipulation  |                                                 |
\*---------------------------------------------------------------------------*/
FoamFile
{
    version     2.0;
    format      ascii;
    class       dictionary;
    object      fvSolution;
}
// * * * * * * * * * * * * * * * * * * * * * * * * * * * * * * * * * * * * * //
// https://www.wolfdynamics.com/wiki/tipsandtricks.pdf

solvers
{
    p
    {
        solver          GAMG;
        smoother        DICGaussSeidel;
        tolerance       1e-6;
        relTol          0.05;
        minIter         3;
        maxIter         100;
        // GPT suggestions
        // nPreSweeps      0;
        // nPostSweeps     2;
    }

    U
    {
        solver          smoothSolver;
        smoother        symGaussSeidel;
        tolerance       1e-8;
        relTol          0.0;
        minIter         1;
        maxIter         100;
    }
    
    k
    {
        solver          smoothSolver;
        smoother        GaussSeidel;
        tolerance       1e-8;
        relTol          0.05;
        minIter         1;
        maxIter         100;
    }

    omega
    {
        solver          smoothSolver;
        smoother        GaussSeidel;
        tolerance       1e-8;
        relTol          0.05;
        minIter         1;
        maxIter         100;
    }
}

SIMPLE
{
    nNonOrthogonalCorrectors 2;
    consistent      yes;

    residualControl
    {
        p               1e-4;
        U               1e-6;
        "(k|omega)"     1e-6;
    }
}

relaxationFactors
{
    equations
    {
        U               0.7; // 0.9;
        p               0.9;
        ".*"            0.8; // 0.8;
    }
}

potentialFlow
{
    nNonOrthogonalCorrectors 2;
}


// ************************************************************************* //
